#define VOID 0
#define SAND 1
#define WATER 2
#define WALL 3
#define WOOD 4
#define SMOKE 5
#define FIRE 6
#define STONE 7
#define KEROSENE 8
#define STEAM 9
#define SEAWATER 10
#define LAVA 11
#define ICE 12
#define SALT 13
#define SAWDUST 14
#define ACID 15
#define VINE 16
#define RUST 17
#define IRON 18
#define METHANE 19
#define AMMONIA 20

struct Particle {
    int type;
    float shade;
};
